<?xml version="1.0" encoding="UTF-8"?>

<!-- generated on Wed Aug 21 21:36:05 2019 by Netedit Version 0.32.0
<?xml version="1.0" encoding="UTF-8"?>

<configuration xmlns:xsi="http://www.w3.org/2001/XMLSchema-instance" xsi:noNamespaceSchemaLocation="http://sumo.dlr.de/xsd/netconvertConfiguration.xsd">

    <input>
        <sumo-net-file value="/Users/mac/src/Simulations/mixedtraffic/cfg/freeway.net.xml"/>
    </input>

    <output>
        <output-file value="/Users/mac/src/Simulations/mixedtraffic/cfg/freeway.net.xml"/>
    </output>

    <processing>
        <no-turnarounds value="true"/>
        <offset.disable-normalization value="true"/>
        <lefthand value="false"/>
        <junctions.corner-detail value="0"/>
        <rectangular-lane-cut value="false"/>
        <walkingareas value="false"/>
    </processing>

</configuration>
-->

<net version="0.27" xmlns:xsi="http://www.w3.org/2001/XMLSchema-instance" xsi:noNamespaceSchemaLocation="http://sumo.dlr.de/xsd/net_file.xsd">

    <location netOffset="0.00,0.00" convBoundary="0.00,-7000.00,7000.00,0.00" origBoundary="-10000000000.00,-10000000000.00,10000000000.00,10000000000.00" projParameter="!"/>

    <edge id=":0_0" function="internal">
        <lane id=":0_0_0" index="0" speed="100.00" length="2.58" shape="11.55,-13.15 11.65,-12.45 11.95,-11.95 12.45,-11.65 13.15,-11.55"/>
    </edge>
    <edge id=":0_1" function="internal">
        <lane id=":0_1_0" index="0" speed="100.00" length="7.90" shape="8.25,-13.15 8.56,-11.01 9.48,-9.47 11.01,-8.56 13.15,-8.25"/>
    </edge>
    <edge id=":0_2" function="internal">
        <lane id=":0_2_0" index="0" speed="100.00" length="13.22" shape="4.95,-13.15 5.46,-9.56 7.00,-7.00 9.56,-5.46 13.15,-4.95"/>
    </edge>
    <edge id=":0_3" function="internal">
        <lane id=":0_3_0" index="0" speed="100.00" length="18.55" shape="1.65,-13.15 2.37,-8.12 4.53,-4.53 8.12,-2.37 13.15,-1.65"/>
    </edge>
    <edge id=":1_0" function="internal">
        <lane id=":1_0_0" index="0" speed="87.50" length="16.97" shape="993.99,-22.34 998.85,-17.62 1002.63,-14.25 1005.33,-12.22 1006.95,-11.55"/>
    </edge>
    <edge id=":1_1" function="internal">
        <lane id=":1_1_0" index="0" speed="87.50" length="19.49" shape="991.66,-20.01 997.02,-14.86 1001.36,-11.19 1004.67,-8.98 1006.95,-8.25"/>
    </edge>
    <edge id=":1_2" function="internal">
        <lane id=":1_2_0" index="0" speed="87.50" length="22.03" shape="989.32,-17.68 995.20,-12.11 1000.09,-8.13 1004.01,-5.75 1006.95,-4.95"/>
    </edge>
    <edge id=":1_3" function="internal">
        <lane id=":1_3_0" index="0" speed="87.50" length="24.58" shape="986.99,-15.34 993.37,-9.35 998.83,-5.07 1003.35,-2.51 1006.95,-1.65"/>
    </edge>
    <edge id=":1_4" function="internal">
        <lane id=":1_4_0" index="0" speed="100.00" length="21.53" shape="985.42,-11.55 1006.95,-11.55"/>
        <lane id=":1_4_1" index="1" speed="100.00" length="21.53" shape="985.42,-8.25 1006.95,-8.25"/>
        <lane id=":1_4_2" index="2" speed="100.00" length="21.53" shape="985.42,-4.95 1006.95,-4.95"/>
        <lane id=":1_4_3" index="3" speed="100.00" length="21.53" shape="985.42,-1.65 1006.95,-1.65"/>
    </edge>
    <edge id=":10_0" function="internal">
        <lane id=":10_0_0" index="0" speed="100.00" length="2.58" shape="6988.45,-6986.85 6988.35,-6987.55 6988.05,-6988.05 6987.55,-6988.35 6986.85,-6988.45"/>
    </edge>
    <edge id=":10_1" function="internal">
        <lane id=":10_1_0" index="0" speed="100.00" length="7.90" shape="6991.75,-6986.85 6991.44,-6988.99 6990.52,-6990.52 6988.99,-6991.44 6986.85,-6991.75"/>
    </edge>
    <edge id=":10_2" function="internal">
        <lane id=":10_2_0" index="0" speed="100.00" length="13.22" shape="6995.05,-6986.85 6994.54,-6990.44 6993.00,-6993.00 6990.44,-6994.54 6986.85,-6995.05"/>
    </edge>
    <edge id=":10_3" function="internal">
        <lane id=":10_3_0" index="0" speed="100.00" length="18.55" shape="6998.35,-6986.85 6997.63,-6991.88 6995.48,-6995.48 6991.88,-6997.63 6986.85,-6998.35"/>
    </edge>
    <edge id=":11_0" function="internal">
        <lane id=":11_0_0" index="0" speed="87.50" length="16.97" shape="6006.01,-6977.66 6001.15,-6982.38 5997.37,-6985.75 5994.67,-6987.78 5993.05,-6988.45"/>
    </edge>
    <edge id=":11_1" function="internal">
        <lane id=":11_1_0" index="0" speed="87.50" length="19.49" shape="6008.34,-6979.99 6002.98,-6985.14 5998.64,-6988.81 5995.33,-6991.02 5993.05,-6991.75"/>
    </edge>
    <edge id=":11_2" function="internal">
        <lane id=":11_2_0" index="0" speed="87.50" length="22.03" shape="6010.68,-6982.32 6004.80,-6987.89 5999.91,-6991.87 5995.99,-6994.25 5993.05,-6995.05"/>
    </edge>
    <edge id=":11_3" function="internal">
        <lane id=":11_3_0" index="0" speed="87.50" length="24.58" shape="6013.01,-6984.66 6006.63,-6990.65 6001.17,-6994.93 5996.65,-6997.49 5993.05,-6998.35"/>
    </edge>
    <edge id=":11_4" function="internal">
        <lane id=":11_4_0" index="0" speed="100.00" length="21.53" shape="6014.58,-6988.45 5993.05,-6988.45"/>
        <lane id=":11_4_1" index="1" speed="100.00" length="21.53" shape="6014.58,-6991.75 5993.05,-6991.75"/>
        <lane id=":11_4_2" index="2" speed="100.00" length="21.53" shape="6014.58,-6995.05 5993.05,-6995.05"/>
        <lane id=":11_4_3" index="3" speed="100.00" length="21.53" shape="6014.58,-6998.35 5993.05,-6998.35"/>
    </edge>
    <edge id=":12_0" function="internal">
        <lane id=":12_0_0" index="0" speed="87.50" length="16.97" shape="3506.01,-6977.66 3501.15,-6982.38 3497.37,-6985.75 3494.67,-6987.78 3493.05,-6988.45"/>
    </edge>
    <edge id=":12_1" function="internal">
        <lane id=":12_1_0" index="0" speed="87.50" length="19.49" shape="3508.34,-6979.99 3502.98,-6985.14 3498.64,-6988.81 3495.33,-6991.02 3493.05,-6991.75"/>
    </edge>
    <edge id=":12_2" function="internal">
        <lane id=":12_2_0" index="0" speed="87.50" length="22.03" shape="3510.68,-6982.32 3504.80,-6987.89 3499.91,-6991.87 3495.99,-6994.25 3493.05,-6995.05"/>
    </edge>
    <edge id=":12_3" function="internal">
        <lane id=":12_3_0" index="0" speed="87.50" length="24.58" shape="3513.01,-6984.66 3506.63,-6990.65 3501.17,-6994.93 3496.65,-6997.49 3493.05,-6998.35"/>
    </edge>
    <edge id=":12_4" function="internal">
        <lane id=":12_4_0" index="0" speed="100.00" length="21.53" shape="3514.58,-6988.45 3493.05,-6988.45"/>
        <lane id=":12_4_1" index="1" speed="100.00" length="21.53" shape="3514.58,-6991.75 3493.05,-6991.75"/>
        <lane id=":12_4_2" index="2" speed="100.00" length="21.53" shape="3514.58,-6995.05 3493.05,-6995.05"/>
        <lane id=":12_4_3" index="3" speed="100.00" length="21.53" shape="3514.58,-6998.35 3493.05,-6998.35"/>
    </edge>
    <edge id=":13_0" function="internal">
        <lane id=":13_0_0" index="0" speed="100.00" length="0.10" shape="2000.00,-6988.45 2000.00,-6988.45"/>
        <lane id=":13_0_1" index="1" speed="100.00" length="0.10" shape="2000.00,-6991.75 2000.00,-6991.75"/>
        <lane id=":13_0_2" index="2" speed="100.00" length="0.10" shape="2000.00,-6995.05 2000.00,-6995.05"/>
        <lane id=":13_0_3" index="3" speed="100.00" length="0.10" shape="2000.00,-6998.35 2000.00,-6998.35"/>
    </edge>
    <edge id=":14_0" function="internal">
        <lane id=":14_0_0" index="0" speed="87.50" length="10.43" shape="997.61,-6988.45 996.28,-6988.07 994.46,-6986.92 992.14,-6985.00 989.32,-6982.32"/>
    </edge>
    <edge id=":14_1" function="internal">
        <lane id=":14_1_0" index="0" speed="87.50" length="11.57" shape="997.61,-6988.45 994.39,-6988.21 991.54,-6987.50 989.08,-6986.32 986.99,-6984.66"/>
    </edge>
    <edge id=":14_2" function="internal">
        <lane id=":14_2_0" index="0" speed="100.00" length="12.19" shape="997.61,-6988.45 985.42,-6988.45"/>
        <lane id=":14_2_1" index="1" speed="100.00" length="12.19" shape="997.61,-6991.75 985.42,-6991.75"/>
        <lane id=":14_2_2" index="2" speed="100.00" length="12.19" shape="997.61,-6995.05 985.42,-6995.05"/>
        <lane id=":14_2_3" index="3" speed="100.00" length="12.19" shape="997.61,-6998.35 985.42,-6998.35"/>
    </edge>
    <edge id=":15_0" function="internal">
        <lane id=":15_0_0" index="0" speed="100.00" length="2.58" shape="13.15,-6988.45 12.45,-6988.35 11.95,-6988.05 11.65,-6987.55 11.55,-6986.85"/>
    </edge>
    <edge id=":15_1" function="internal">
        <lane id=":15_1_0" index="0" speed="100.00" length="7.90" shape="13.15,-6991.75 11.01,-6991.44 9.47,-6990.52 8.56,-6988.99 8.25,-6986.85"/>
    </edge>
    <edge id=":15_2" function="internal">
        <lane id=":15_2_0" index="0" speed="100.00" length="13.22" shape="13.15,-6995.05 9.56,-6994.54 7.00,-6993.00 5.46,-6990.44 4.95,-6986.85"/>
    </edge>
    <edge id=":15_3" function="internal">
        <lane id=":15_3_0" index="0" speed="100.00" length="18.55" shape="13.15,-6998.35 8.12,-6997.63 4.53,-6995.48 2.37,-6991.88 1.65,-6986.85"/>
    </edge>
    <edge id=":16_0" function="internal">
        <lane id=":16_0_0" index="0" speed="87.50" length="16.97" shape="22.34,-6006.01 17.62,-6001.15 14.25,-5997.37 12.22,-5994.67 11.55,-5993.05"/>
    </edge>
    <edge id=":16_1" function="internal">
        <lane id=":16_1_0" index="0" speed="87.50" length="19.49" shape="20.01,-6008.34 14.86,-6002.98 11.19,-5998.64 8.98,-5995.33 8.25,-5993.05"/>
    </edge>
    <edge id=":16_2" function="internal">
        <lane id=":16_2_0" index="0" speed="87.50" length="22.03" shape="17.68,-6010.68 12.11,-6004.80 8.13,-5999.91 5.75,-5995.99 4.95,-5993.05"/>
    </edge>
    <edge id=":16_3" function="internal">
        <lane id=":16_3_0" index="0" speed="87.50" length="24.58" shape="15.34,-6013.01 9.35,-6006.63 5.07,-6001.17 2.51,-5996.65 1.65,-5993.05"/>
    </edge>
    <edge id=":16_4" function="internal">
        <lane id=":16_4_0" index="0" speed="100.00" length="21.53" shape="11.55,-6014.58 11.55,-5993.05"/>
        <lane id=":16_4_1" index="1" speed="100.00" length="21.53" shape="8.25,-6014.58 8.25,-5993.05"/>
        <lane id=":16_4_2" index="2" speed="100.00" length="21.53" shape="4.95,-6014.58 4.95,-5993.05"/>
        <lane id=":16_4_3" index="3" speed="100.00" length="21.53" shape="1.65,-6014.58 1.65,-5993.05"/>
    </edge>
    <edge id=":17_0" function="internal">
        <lane id=":17_0_0" index="0" speed="87.50" length="16.97" shape="22.34,-3506.01 17.62,-3501.15 14.25,-3497.37 12.22,-3494.67 11.55,-3493.05"/>
    </edge>
    <edge id=":17_1" function="internal">
        <lane id=":17_1_0" index="0" speed="87.50" length="19.49" shape="20.01,-3508.34 14.86,-3502.98 11.19,-3498.64 8.98,-3495.33 8.25,-3493.05"/>
    </edge>
    <edge id=":17_2" function="internal">
        <lane id=":17_2_0" index="0" speed="87.50" length="22.03" shape="17.68,-3510.68 12.11,-3504.80 8.13,-3499.91 5.75,-3495.99 4.95,-3493.05"/>
    </edge>
    <edge id=":17_3" function="internal">
        <lane id=":17_3_0" index="0" speed="87.50" length="24.58" shape="15.34,-3513.01 9.35,-3506.63 5.07,-3501.17 2.51,-3496.65 1.65,-3493.05"/>
    </edge>
    <edge id=":17_4" function="internal">
        <lane id=":17_4_0" index="0" speed="100.00" length="21.53" shape="11.55,-3514.58 11.55,-3493.05"/>
        <lane id=":17_4_1" index="1" speed="100.00" length="21.53" shape="8.25,-3514.58 8.25,-3493.05"/>
        <lane id=":17_4_2" index="2" speed="100.00" length="21.53" shape="4.95,-3514.58 4.95,-3493.05"/>
        <lane id=":17_4_3" index="3" speed="100.00" length="21.53" shape="1.65,-3514.58 1.65,-3493.05"/>
    </edge>
    <edge id=":18_0" function="internal">
        <lane id=":18_0_0" index="0" speed="100.00" length="0.10" shape="11.55,-2000.00 11.55,-2000.00"/>
        <lane id=":18_0_1" index="1" speed="100.00" length="0.10" shape="8.25,-2000.00 8.25,-2000.00"/>
        <lane id=":18_0_2" index="2" speed="100.00" length="0.10" shape="4.95,-2000.00 4.95,-2000.00"/>
        <lane id=":18_0_3" index="3" speed="100.00" length="0.10" shape="1.65,-2000.00 1.65,-2000.00"/>
    </edge>
    <edge id=":19_0" function="internal">
        <lane id=":19_0_0" index="0" speed="87.50" length="9.34" shape="11.55,-998.08 11.86,-995.48 12.79,-993.85 14.31,-992.48 16.39,-990.61"/>
    </edge>
    <edge id=":19_1" function="internal">
        <lane id=":19_1_0" index="0" speed="87.50" length="12.02" shape="11.55,-998.08 11.54,-994.52 11.83,-991.99 12.88,-989.78 15.16,-987.17"/>
    </edge>
    <edge id=":19_2" function="internal">
        <lane id=":19_2_0" index="0" speed="100.00" length="10.24" shape="11.55,-998.08 11.55,-987.44"/>
        <lane id=":19_2_1" index="1" speed="100.00" length="10.24" shape="8.25,-998.08 8.25,-987.71"/>
        <lane id=":19_2_2" index="2" speed="100.00" length="10.24" shape="4.95,-998.08 4.95,-987.98"/>
        <lane id=":19_2_3" index="3" speed="100.00" length="10.24" shape="1.65,-998.08 1.65,-988.25"/>
    </edge>
    <edge id=":2_0" function="internal">
        <lane id=":2_0_0" index="0" speed="87.50" length="16.81" shape="3494.21,-22.30 3498.99,-17.60 3502.71,-14.24 3505.38,-12.22 3506.99,-11.55"/>
    </edge>
    <edge id=":2_1" function="internal">
        <lane id=":2_1_0" index="0" speed="87.50" length="19.35" shape="3491.86,-19.98 3497.15,-14.85 3501.44,-11.18 3504.72,-8.98 3506.99,-8.25"/>
    </edge>
    <edge id=":2_2" function="internal">
        <lane id=":2_2_0" index="0" speed="87.50" length="21.91" shape="3489.51,-17.66 3495.31,-12.10 3500.16,-8.13 3504.05,-5.74 3506.99,-4.95"/>
    </edge>
    <edge id=":2_3" function="internal">
        <lane id=":2_3_0" index="0" speed="87.50" length="24.49" shape="3487.16,-15.34 3493.47,-9.35 3498.88,-5.07 3503.39,-2.51 3506.99,-1.65"/>
    </edge>
    <edge id=":2_4" function="internal">
        <lane id=":2_4_0" index="0" speed="100.00" length="21.41" shape="3485.58,-11.55 3506.99,-11.55"/>
        <lane id=":2_4_1" index="1" speed="100.00" length="21.41" shape="3485.58,-8.25 3506.99,-8.25"/>
        <lane id=":2_4_2" index="2" speed="100.00" length="21.41" shape="3485.58,-4.95 3506.99,-4.95"/>
        <lane id=":2_4_3" index="3" speed="100.00" length="21.41" shape="3485.58,-1.65 3506.99,-1.65"/>
    </edge>
    <edge id=":3_0" function="internal">
        <lane id=":3_0_0" index="0" speed="100.00" length="0.10" shape="5000.00,-11.55 5000.00,-11.55"/>
        <lane id=":3_0_1" index="1" speed="100.00" length="0.10" shape="5000.00,-8.25 5000.00,-8.25"/>
        <lane id=":3_0_2" index="2" speed="100.00" length="0.10" shape="5000.00,-4.95 5000.00,-4.95"/>
        <lane id=":3_0_3" index="3" speed="100.00" length="0.10" shape="5000.00,-1.65 5000.00,-1.65"/>
    </edge>
    <edge id=":4_0" function="internal">
        <lane id=":4_0_0" index="0" speed="87.50" length="10.43" shape="6002.39,-11.55 6003.72,-11.93 6005.54,-13.08 6007.86,-15.00 6010.68,-17.68"/>
    </edge>
    <edge id=":4_1" function="internal">
        <lane id=":4_1_0" index="0" speed="87.50" length="11.57" shape="6002.39,-11.55 6005.61,-11.79 6008.46,-12.50 6010.92,-13.68 6013.01,-15.34"/>
    </edge>
    <edge id=":4_2" function="internal">
        <lane id=":4_2_0" index="0" speed="100.00" length="12.19" shape="6002.39,-11.55 6014.58,-11.55"/>
        <lane id=":4_2_1" index="1" speed="100.00" length="12.19" shape="6002.39,-8.25 6014.58,-8.25"/>
        <lane id=":4_2_2" index="2" speed="100.00" length="12.19" shape="6002.39,-4.95 6014.58,-4.95"/>
        <lane id=":4_2_3" index="3" speed="100.00" length="12.19" shape="6002.39,-1.65 6014.58,-1.65"/>
    </edge>
    <edge id=":5_0" function="internal">
        <lane id=":5_0_0" index="0" speed="100.00" length="2.58" shape="6986.85,-11.55 6987.55,-11.65 6988.05,-11.95 6988.35,-12.45 6988.45,-13.15"/>
    </edge>
    <edge id=":5_1" function="internal">
        <lane id=":5_1_0" index="0" speed="100.00" length="7.90" shape="6986.85,-8.25 6988.99,-8.56 6990.52,-9.48 6991.44,-11.01 6991.75,-13.15"/>
    </edge>
    <edge id=":5_2" function="internal">
        <lane id=":5_2_0" index="0" speed="100.00" length="13.22" shape="6986.85,-4.95 6990.44,-5.46 6993.00,-7.00 6994.54,-9.56 6995.05,-13.15"/>
    </edge>
    <edge id=":5_3" function="internal">
        <lane id=":5_3_0" index="0" speed="100.00" length="18.55" shape="6986.85,-1.65 6991.88,-2.37 6995.48,-4.53 6997.63,-8.12 6998.35,-13.15"/>
    </edge>
    <edge id=":6_0" function="internal">
        <lane id=":6_0_0" index="0" speed="100.00" length="21.53" shape="6988.45,-985.42 6988.45,-1006.95"/>
        <lane id=":6_0_1" index="1" speed="100.00" length="21.53" shape="6991.75,-985.42 6991.75,-1006.95"/>
        <lane id=":6_0_2" index="2" speed="100.00" length="21.53" shape="6995.05,-985.42 6995.05,-1006.95"/>
        <lane id=":6_0_3" index="3" speed="100.00" length="21.53" shape="6998.35,-985.42 6998.35,-1006.95"/>
    </edge>
    <edge id=":6_4" function="internal">
        <lane id=":6_4_0" index="0" speed="87.50" length="16.97" shape="6977.66,-993.99 6982.38,-998.85 6985.75,-1002.63 6987.78,-1005.33 6988.45,-1006.95"/>
    </edge>
    <edge id=":6_5" function="internal">
        <lane id=":6_5_0" index="0" speed="87.50" length="19.49" shape="6979.99,-991.66 6985.14,-997.02 6988.81,-1001.36 6991.02,-1004.67 6991.75,-1006.95"/>
    </edge>
    <edge id=":6_6" function="internal">
        <lane id=":6_6_0" index="0" speed="87.50" length="22.03" shape="6982.32,-989.32 6987.89,-995.20 6991.87,-1000.09 6994.25,-1004.01 6995.05,-1006.95"/>
    </edge>
    <edge id=":6_7" function="internal">
        <lane id=":6_7_0" index="0" speed="87.50" length="24.58" shape="6984.66,-986.99 6990.65,-993.37 6994.93,-998.83 6997.49,-1003.35 6998.35,-1006.95"/>
    </edge>
    <edge id=":7_0" function="internal">
        <lane id=":7_0_0" index="0" speed="100.00" length="21.53" shape="6988.45,-3485.42 6988.45,-3506.95"/>
        <lane id=":7_0_1" index="1" speed="100.00" length="21.53" shape="6991.75,-3485.42 6991.75,-3506.95"/>
        <lane id=":7_0_2" index="2" speed="100.00" length="21.53" shape="6995.05,-3485.42 6995.05,-3506.95"/>
        <lane id=":7_0_3" index="3" speed="100.00" length="21.53" shape="6998.35,-3485.42 6998.35,-3506.95"/>
    </edge>
    <edge id=":7_4" function="internal">
        <lane id=":7_4_0" index="0" speed="87.50" length="16.97" shape="6977.66,-3493.99 6982.38,-3498.85 6985.75,-3502.63 6987.78,-3505.33 6988.45,-3506.95"/>
    </edge>
    <edge id=":7_5" function="internal">
        <lane id=":7_5_0" index="0" speed="87.50" length="19.49" shape="6979.99,-3491.66 6985.14,-3497.02 6988.81,-3501.36 6991.02,-3504.67 6991.75,-3506.95"/>
    </edge>
    <edge id=":7_6" function="internal">
        <lane id=":7_6_0" index="0" speed="87.50" length="22.03" shape="6982.32,-3489.32 6987.89,-3495.20 6991.87,-3500.09 6994.25,-3504.01 6995.05,-3506.95"/>
    </edge>
    <edge id=":7_7" function="internal">
        <lane id=":7_7_0" index="0" speed="87.50" length="24.58" shape="6984.66,-3486.99 6990.65,-3493.37 6994.93,-3498.83 6997.49,-3503.35 6998.35,-3506.95"/>
    </edge>
    <edge id=":8_0" function="internal">
        <lane id=":8_0_0" index="0" speed="100.00" length="0.10" shape="6988.45,-5000.00 6988.45,-5000.00"/>
        <lane id=":8_0_1" index="1" speed="100.00" length="0.10" shape="6991.75,-5000.00 6991.75,-5000.00"/>
        <lane id=":8_0_2" index="2" speed="100.00" length="0.10" shape="6995.05,-5000.00 6995.05,-5000.00"/>
        <lane id=":8_0_3" index="3" speed="100.00" length="0.10" shape="6998.35,-5000.00 6998.35,-5000.00"/>
    </edge>
    <edge id=":9_0" function="internal">
        <lane id=":9_0_0" index="0" speed="87.50" length="10.43" shape="6988.45,-6002.39 6988.07,-6003.72 6986.92,-6005.54 6985.00,-6007.86 6982.32,-6010.68"/>
    </edge>
    <edge id=":9_1" function="internal">
        <lane id=":9_1_0" index="0" speed="87.50" length="11.57" shape="6988.45,-6002.39 6988.21,-6005.61 6987.50,-6008.46 6986.32,-6010.92 6984.66,-6013.01"/>
    </edge>
    <edge id=":9_2" function="internal">
        <lane id=":9_2_0" index="0" speed="100.00" length="12.19" shape="6988.45,-6002.39 6988.45,-6014.58"/>
        <lane id=":9_2_1" index="1" speed="100.00" length="12.19" shape="6991.75,-6002.39 6991.75,-6014.58"/>
        <lane id=":9_2_2" index="2" speed="100.00" length="12.19" shape="6995.05,-6002.39 6995.05,-6014.58"/>
        <lane id=":9_2_3" index="3" speed="100.00" length="12.19" shape="6998.35,-6002.39 6998.35,-6014.58"/>
    </edge>
    <edge id=":e0_0" function="internal">
        <lane id=":e0_0_0" index="0" speed="75.00" length="1.26" shape="6394.58,-401.58 6394.79,-401.83 6394.93,-402.10 6395.02,-402.39 6395.05,-402.71"/>
    </edge>
    <edge id=":e0_1" function="internal">
        <lane id=":e0_1_0" index="0" speed="75.00" length="3.85" shape="6396.91,-399.25 6397.54,-400.00 6397.99,-400.83 6398.26,-401.74 6398.35,-402.71"/>
    </edge>
    <edge id=":e1_0" function="internal">
        <lane id=":e1_0_0" index="0" speed="75.00" length="1.26" shape="6598.42,-6394.58 6598.17,-6394.79 6597.90,-6394.93 6597.61,-6395.02 6597.29,-6395.05"/>
    </edge>
    <edge id=":e1_1" function="internal">
        <lane id=":e1_1_0" index="0" speed="75.00" length="3.85" shape="6600.75,-6396.91 6600.00,-6397.54 6599.17,-6397.99 6598.26,-6398.26 6597.29,-6398.35"/>
    </edge>
    <edge id=":e2_0" function="internal">
        <lane id=":e2_0_0" index="0" speed="75.00" length="1.26" shape="605.42,-6598.42 605.21,-6598.17 605.07,-6597.90 604.98,-6597.61 604.95,-6597.29"/>
    </edge>
    <edge id=":e2_1" function="internal">
        <lane id=":e2_1_0" index="0" speed="75.00" length="3.85" shape="603.09,-6600.75 602.46,-6600.00 602.01,-6599.17 601.74,-6598.26 601.65,-6597.29"/>
    </edge>
    <edge id=":e3_0" function="internal">
        <lane id=":e3_0_0" index="0" speed="75.00" length="1.25" shape="401.58,-605.42 401.83,-605.21 402.10,-605.07 402.39,-604.98 402.71,-604.95"/>
    </edge>
    <edge id=":e3_1" function="internal">
        <lane id=":e3_1_0" index="0" speed="75.00" length="3.84" shape="399.25,-603.08 400.00,-602.46 400.83,-602.01 401.73,-601.74 402.71,-601.65"/>
    </edge>
    <edge id=":nn0_0" function="internal">
        <lane id=":nn0_0_0" index="0" speed="75.00" length="9.10" shape="3104.84,-411.55 3107.15,-411.34 3109.29,-410.70 3111.24,-409.63 3113.02,-408.13"/>
    </edge>
    <edge id=":nn0_1" function="internal">
        <lane id=":nn0_1_0" index="0" speed="75.00" length="6.49" shape="3104.84,-408.25 3106.49,-408.10 3108.01,-407.64 3109.41,-406.88 3110.67,-405.81"/>
    </edge>
    <edge id=":nn0_2" function="internal">
        <lane id=":nn0_2_0" index="0" speed="75.00" length="3.88" shape="3104.84,-404.95 3105.83,-404.86 3106.74,-404.59 3107.57,-404.13 3108.33,-403.49"/>
    </edge>
    <edge id=":nn0_3" function="internal">
        <lane id=":nn0_3_0" index="0" speed="75.00" length="1.27" shape="3104.84,-401.65 3105.16,-401.62 3105.46,-401.53 3105.73,-401.38 3105.98,-401.17"/>
    </edge>
    <edge id=":nn1_0" function="internal">
        <lane id=":nn1_0_0" index="0" speed="75.00" length="9.03" shape="6588.45,-3100.02 6588.66,-3102.32 6589.29,-3104.44 6590.34,-3106.38 6591.82,-3108.15"/>
    </edge>
    <edge id=":nn1_1" function="internal">
        <lane id=":nn1_1_0" index="0" speed="75.00" length="6.44" shape="6591.75,-3100.02 6591.90,-3101.66 6592.35,-3103.17 6593.10,-3104.56 6594.15,-3105.82"/>
    </edge>
    <edge id=":nn1_2" function="internal">
        <lane id=":nn1_2_0" index="0" speed="75.00" length="3.85" shape="6595.05,-3100.02 6595.14,-3101.00 6595.41,-3101.90 6595.86,-3102.73 6596.49,-3103.49"/>
    </edge>
    <edge id=":nn1_3" function="internal">
        <lane id=":nn1_3_0" index="0" speed="75.00" length="1.26" shape="6598.35,-3100.02 6598.38,-3100.34 6598.47,-3100.63 6598.61,-3100.91 6598.82,-3101.15"/>
    </edge>
    <edge id=":nn2_0" function="internal">
        <lane id=":nn2_0_0" index="0" speed="75.00" length="9.03" shape="3899.98,-6588.45 3897.68,-6588.66 3895.56,-6589.29 3893.62,-6590.34 3891.85,-6591.82"/>
    </edge>
    <edge id=":nn2_1" function="internal">
        <lane id=":nn2_1_0" index="0" speed="75.00" length="6.44" shape="3899.98,-6591.75 3898.34,-6591.90 3896.83,-6592.35 3895.44,-6593.10 3894.18,-6594.15"/>
    </edge>
    <edge id=":nn2_2" function="internal">
        <lane id=":nn2_2_0" index="0" speed="75.00" length="3.85" shape="3899.98,-6595.05 3899.00,-6595.14 3898.10,-6595.41 3897.27,-6595.86 3896.51,-6596.49"/>
    </edge>
    <edge id=":nn2_3" function="internal">
        <lane id=":nn2_3_0" index="0" speed="75.00" length="1.26" shape="3899.98,-6598.35 3899.66,-6598.38 3899.37,-6598.47 3899.09,-6598.61 3898.85,-6598.82"/>
    </edge>
    <edge id=":nn3_0" function="internal">
        <lane id=":nn3_0_0" index="0" speed="75.00" length="9.03" shape="411.55,-3899.98 411.34,-3897.68 410.71,-3895.56 409.66,-3893.62 408.18,-3891.85"/>
    </edge>
    <edge id=":nn3_1" function="internal">
        <lane id=":nn3_1_0" index="0" speed="75.00" length="6.44" shape="408.25,-3899.98 408.10,-3898.34 407.65,-3896.83 406.90,-3895.44 405.85,-3894.18"/>
    </edge>
    <edge id=":nn3_2" function="internal">
        <lane id=":nn3_2_0" index="0" speed="75.00" length="3.85" shape="404.95,-3899.98 404.86,-3899.00 404.59,-3898.10 404.14,-3897.27 403.51,-3896.51"/>
    </edge>
    <edge id=":nn3_3" function="internal">
        <lane id=":nn3_3_0" index="0" speed="75.00" length="1.26" shape="401.65,-3899.98 401.62,-3899.66 401.53,-3899.37 401.39,-3899.09 401.18,-3898.85"/>
    </edge>
    <edge id=":s0_0" function="internal">
        <lane id=":s0_0_0" index="0" speed="75.00" length="13.67" shape="600.29,-411.55 602.69,-411.12 605.40,-409.81 608.42,-407.64 611.74,-404.59"/>
    </edge>
    <edge id=":s0_1" function="internal">
        <lane id=":s0_1_0" index="0" speed="75.00" length="11.31" shape="600.19,-408.25 601.98,-407.87 604.13,-406.73 606.63,-404.83 609.49,-402.18"/>
    </edge>
    <edge id=":s0_2" function="internal">
        <lane id=":s0_2_0" index="0" speed="75.00" length="8.96" shape="600.08,-404.95 601.27,-404.63 602.85,-403.65 604.84,-402.03 607.24,-399.76"/>
    </edge>
    <edge id=":s0_3" function="internal">
        <lane id=":s0_3_0" index="0" speed="75.00" length="6.63" shape="600.00,-401.65 601.10,-401.08 602.60,-399.77 604.05,-398.32 604.98,-397.35"/>
    </edge>
    <edge id=":s1_0" function="internal">
        <lane id=":s1_0_0" index="0" speed="75.00" length="9.03" shape="6588.45,-600.02 6588.66,-602.32 6589.29,-604.44 6590.34,-606.38 6591.82,-608.15"/>
    </edge>
    <edge id=":s1_1" function="internal">
        <lane id=":s1_1_0" index="0" speed="75.00" length="6.44" shape="6591.75,-600.02 6591.90,-601.66 6592.35,-603.17 6593.10,-604.56 6594.15,-605.82"/>
    </edge>
    <edge id=":s1_2" function="internal">
        <lane id=":s1_2_0" index="0" speed="75.00" length="3.85" shape="6595.05,-600.02 6595.14,-601.00 6595.41,-601.90 6595.86,-602.73 6596.49,-603.49"/>
    </edge>
    <edge id=":s1_3" function="internal">
        <lane id=":s1_3_0" index="0" speed="75.00" length="1.26" shape="6598.35,-600.02 6598.38,-600.34 6598.47,-600.63 6598.61,-600.91 6598.82,-601.15"/>
    </edge>
    <edge id=":s2_0" function="internal">
        <lane id=":s2_0_0" index="0" speed="75.00" length="9.03" shape="6399.98,-6588.45 6397.68,-6588.66 6395.56,-6589.29 6393.62,-6590.34 6391.85,-6591.82"/>
    </edge>
    <edge id=":s2_1" function="internal">
        <lane id=":s2_1_0" index="0" speed="75.00" length="6.44" shape="6399.98,-6591.75 6398.34,-6591.90 6396.83,-6592.35 6395.44,-6593.10 6394.18,-6594.15"/>
    </edge>
    <edge id=":s2_2" function="internal">
        <lane id=":s2_2_0" index="0" speed="75.00" length="3.85" shape="6399.98,-6595.05 6399.00,-6595.14 6398.10,-6595.41 6397.27,-6595.86 6396.51,-6596.49"/>
    </edge>
    <edge id=":s2_3" function="internal">
        <lane id=":s2_3_0" index="0" speed="75.00" length="1.26" shape="6399.98,-6598.35 6399.66,-6598.38 6399.37,-6598.47 6399.09,-6598.61 6398.85,-6598.82"/>
    </edge>
    <edge id=":s3_0" function="internal">
        <lane id=":s3_0_0" index="0" speed="44.45" length="9.03" shape="411.55,-6399.98 411.34,-6397.68 410.71,-6395.56 409.66,-6393.62 408.18,-6391.85"/>
    </edge>
    <edge id=":s3_1" function="internal">
        <lane id=":s3_1_0" index="0" speed="44.45" length="6.44" shape="408.25,-6399.98 408.10,-6398.34 407.65,-6396.83 406.90,-6395.44 405.85,-6394.18"/>
    </edge>
    <edge id=":s3_2" function="internal">
        <lane id=":s3_2_0" index="0" speed="44.45" length="3.85" shape="404.95,-6399.98 404.86,-6399.00 404.59,-6398.10 404.14,-6397.27 403.51,-6396.51"/>
    </edge>
    <edge id=":s3_3" function="internal">
        <lane id=":s3_3_0" index="0" speed="44.45" length="1.26" shape="401.65,-6399.98 401.62,-6399.66 401.53,-6399.37 401.39,-6399.09 401.18,-6398.85"/>
    </edge>

    <edge id="e0" from="4" to="e0" priority="1">
        <lane id="e0_0" index="0" speed="75.00" length="542.93" shape="6010.68,-17.68 6394.58,-401.58"/>
        <lane id="e0_1" index="1" speed="75.00" length="542.93" shape="6013.01,-15.34 6396.91,-399.25"/>
    </edge>
    <edge id="e1" from="9" to="e1" priority="1">
        <lane id="e1_0" index="0" speed="75.00" length="542.93" shape="6982.32,-6010.68 6598.42,-6394.58"/>
        <lane id="e1_1" index="1" speed="75.00" length="542.93" shape="6984.66,-6013.01 6600.75,-6396.91"/>
    </edge>
    <edge id="e2" from="14" to="e2" priority="1">
        <lane id="e2_0" index="0" speed="75.00" length="542.93" shape="989.32,-6982.32 605.42,-6598.42"/>
        <lane id="e2_1" index="1" speed="75.00" length="542.93" shape="986.99,-6984.66 603.09,-6600.75"/>
    </edge>
    <edge id="e3" from="19" to="e3" priority="1">
        <lane id="e3_0" index="0" speed="75.00" length="543.96" shape="16.39,-990.61 401.58,-605.42"/>
        <lane id="e3_1" index="1" speed="75.00" length="543.96" shape="15.16,-987.17 399.25,-603.08"/>
    </edge>
    <edge id="exit0" from="e0" to="exit0" priority="1">